/*--------------------------------*- C++ -*----------------------------------*\
| =========                 |                                                 |
| \\      /  F ield         | OpenFOAM: The Open Source CFD Toolbox           |
|  \\    /   O peration     | Version:  2.2.2                                 |
|   \\  /    A nd           | Web:      www.OpenFOAM.org                      |
|    \\/     M anipulation  |                                                 |
\*---------------------------------------------------------------------------*/
FoamFile
{
    version     2.0;
    format      ascii;
    class       dictionary;
    location    "system";
    object      controlDict;
}
// * * * * * * * * * * * * * * * * * * * * * * * * * * * * * * * * * * * * * //


libs ("libmyFiniteVolume.so"  "libmyDynamicFvMesh.so");


application     pimpleDyMFoam;

startFrom       latestTime;
//startFrom       startTime;

startTime       0;

stopAt		endTime;

endTime         3;

deltaT          1e-9;

writeControl    adjustableRunTime;
//writeControl    timeStep;

writeInterval    0.1; // 0.01;
//writeInterval   1;

purgeWrite      0;

writeFormat     ascii;

writePrecision  16; // increased from 6 to 16 to have a proper gmshToFoam precision (ie no loss of info btwn both)

writeCompression off;

timeFormat      general;

timePrecision   6;

runTimeModifiable true;

adjustTimeStep  yes;

maxCo           5;//0.2;



// ************************************************************************* //
